
/*--------------------------------*- C++ -*----------------------------------*\
| =========                 |                                                 |
| \      /  F ield         | OpenFOAM: The Open Source CFD Toolbox           |
|  \    /   O peration     | Version:  2.0.1                                 |
|   \  /    A nd           | Web:      www.OpenFOAM.com                      |
|    \/     M anipulation  |                                                 |
\*---------------------------------------------------------------------------*/
FoamFile
{
    version     2.0;
    format      ascii;
    class       vectorField;
    object      kinematicCloudPositions;
}
// * * * * * * * * * * * * * * * * * * * * * * * * * * * * * * * * * * * * * //

(
(0.000970 0.000957 0.000952)
(0.000975 0.000972 0.001905)
(0.000984 0.000954 0.002838)
(0.000996 0.000954 0.003789)
(0.000976 0.000955 0.004734)
(0.000999 0.000972 0.005676)
(0.000971 0.000956 0.006614)
(0.000978 0.000962 0.007560)
(0.001001 0.000954 0.008503)
(0.000983 0.000964 0.009456)
(0.000990 0.000967 0.010397)
(0.000970 0.000969 0.011335)
(0.000985 0.000957 0.012290)
(0.000996 0.000968 0.013238)
(0.000993 0.000958 0.014172)
(0.000995 0.000964 0.015123)
(0.000997 0.000970 0.016056)
(0.000999 0.001907 0.000959)
(0.000986 0.001919 0.001899)
(0.000971 0.001910 0.002835)
(0.000971 0.001907 0.003779)
(0.000989 0.001913 0.004728)
(0.000996 0.001923 0.005670)
(0.000994 0.001908 0.006614)
(0.000971 0.001907 0.007562)
(0.000996 0.001910 0.008508)
(0.000972 0.001906 0.009449)
(0.000988 0.001918 0.010399)
(0.000990 0.001912 0.011348)
(0.001001 0.001922 0.012294)
(0.000999 0.001920 0.013239)
(0.000988 0.001923 0.014182)
(0.000988 0.001920 0.015113)
(0.000983 0.001919 0.016067)
(0.001000 0.002876 0.000952)
(0.000992 0.002862 0.001900)
(0.000991 0.002861 0.002847)
(0.000982 0.002866 0.003788)
(0.000987 0.002859 0.004725)
(0.000971 0.002868 0.005680)
(0.000996 0.002877 0.006624)
(0.000993 0.002867 0.007566)
(0.000984 0.002861 0.008516)
(0.000972 0.002873 0.009457)
(0.000986 0.002875 0.010404)
(0.000979 0.002876 0.011334)
(0.000983 0.002864 0.012292)
(0.000982 0.002870 0.013232)
(0.000979 0.002870 0.014180)
(0.000976 0.002861 0.015128)
(0.000971 0.002875 0.016067)
(0.000971 0.003817 0.000960)
(0.000972 0.003813 0.001891)
(0.000971 0.003826 0.002840)
(0.000978 0.003823 0.003784)
(0.000974 0.003811 0.004725)
(0.000978 0.003810 0.005668)
(0.000977 0.003822 0.006622)
(0.000978 0.003813 0.007560)
(0.000976 0.003811 0.008505)
(0.000978 0.003822 0.009450)
(0.000991 0.003813 0.010401)
(0.000985 0.003818 0.011337)
(0.000995 0.003814 0.012289)
(0.000979 0.003820 0.013233)
(0.000975 0.003810 0.014182)
(0.000998 0.003823 0.015113)
(0.000973 0.003819 0.016068)
(0.000980 0.004764 0.000953)
(0.000977 0.004771 0.001895)
(0.000989 0.004777 0.002843)
(0.000997 0.004766 0.003790)
(0.000998 0.004768 0.004732)
(0.000992 0.004779 0.005680)
(0.000976 0.004777 0.006613)
(0.000983 0.004779 0.007566)
(0.000990 0.004781 0.008504)
(0.000998 0.004774 0.009448)
(0.000985 0.004766 0.010405)
(0.000993 0.004768 0.011334)
(0.000986 0.004766 0.012284)
(0.000984 0.004780 0.013229)
(0.001001 0.004774 0.014174)
(0.000978 0.004777 0.015114)
(0.000984 0.004763 0.016071)
(0.000972 0.005720 0.000958)
(0.000994 0.005734 0.001898)
(0.000982 0.005723 0.002835)
(0.001000 0.005715 0.003779)
(0.000987 0.005733 0.004723)
(0.000992 0.005726 0.005671)
(0.000990 0.005734 0.006625)
(0.001000 0.005723 0.007556)
(0.000972 0.005730 0.008513)
(0.000996 0.005727 0.009461)
(0.001001 0.005720 0.010389)
(0.000999 0.005725 0.011338)
(0.000973 0.005727 0.012280)
(0.000991 0.005715 0.013237)
(0.000983 0.005730 0.014169)
(0.000995 0.005724 0.015123)
(0.000983 0.005718 0.016061)
(0.000995 0.006677 0.000955)
(0.001001 0.006677 0.001899)
(0.000999 0.006681 0.002848)
(0.000980 0.006669 0.003783)
(0.000991 0.006685 0.004726)
(0.000979 0.006672 0.005677)
(0.000988 0.006674 0.006625)
(0.001001 0.006684 0.007559)
(0.000979 0.006676 0.008502)
(0.000987 0.006667 0.009449)
(0.000974 0.006679 0.010390)
(0.000978 0.006672 0.011339)
(0.000983 0.006686 0.012290)
(0.000988 0.006676 0.013224)
(0.000980 0.006667 0.014173)
(0.000971 0.006667 0.015119)
(0.000998 0.006673 0.016062)
(0.000993 0.007624 0.000949)
(0.001001 0.007620 0.001896)
(0.000971 0.007626 0.002839)
(0.000976 0.007633 0.003793)
(0.000994 0.007624 0.004727)
(0.000995 0.007638 0.005683)
(0.000979 0.007619 0.006613)
(0.001000 0.007621 0.007560)
(0.000995 0.007633 0.008508)
(0.000998 0.007637 0.009461)
(0.000976 0.007631 0.010398)
(0.000975 0.007621 0.011338)
(0.000991 0.007627 0.012283)
(0.000993 0.007629 0.013233)
(0.000998 0.007625 0.014175)
(0.001001 0.007630 0.015120)
(0.000991 0.007636 0.016066)
(0.000976 0.008577 0.000958)
(0.000995 0.008582 0.001897)
(0.000980 0.008581 0.002839)
(0.001000 0.008583 0.003785)
(0.000984 0.008580 0.004735)
(0.000974 0.008575 0.005674)
(0.000989 0.008582 0.006616)
(0.000996 0.008585 0.007560)
(0.001000 0.008573 0.008508)
(0.000988 0.008579 0.009446)
(0.000980 0.008585 0.010405)
(0.001000 0.008578 0.011350)
(0.000979 0.008574 0.012283)
(0.000987 0.008581 0.013238)
(0.000987 0.008591 0.014168)
(0.000994 0.008575 0.015115)
(0.000986 0.008588 0.016056)
(0.000979 0.009539 0.000954)
(0.000990 0.009531 0.001895)
(0.000988 0.009534 0.002835)
(0.000986 0.009529 0.003787)
(0.001001 0.009537 0.004728)
(0.000985 0.009533 0.005677)
(0.000982 0.009528 0.006628)
(0.000983 0.009525 0.007560)
(0.000978 0.009535 0.008516)
(0.000975 0.009536 0.009451)
(0.000970 0.009532 0.010399)
(0.001000 0.009540 0.011349)
(0.000977 0.009525 0.012291)
(0.000989 0.009538 0.013227)
(0.000987 0.009525 0.014183)
(0.000995 0.009537 0.015115)
(0.000980 0.009524 0.016061)
(0.000996 0.010490 0.000958)
(0.000980 0.010481 0.001898)
(0.000976 0.010477 0.002847)
(0.000995 0.010481 0.003784)
(0.000974 0.010481 0.004737)
(0.000992 0.010494 0.005681)
(0.000996 0.010493 0.006626)
(0.000994 0.010483 0.007563)
(0.000986 0.010492 0.008515)
(0.000991 0.010485 0.009455)
(0.000995 0.010480 0.010400)
(0.000989 0.010482 0.011334)
(0.000986 0.010492 0.012294)
(0.000973 0.010495 0.013228)
(0.000979 0.010483 0.014172)
(0.001000 0.010481 0.015118)
(0.000988 0.010494 0.016064)
(0.001001 0.011446 0.000952)
(0.000972 0.011442 0.001900)
(0.000976 0.011446 0.002844)
(0.000975 0.011435 0.003779)
(0.000995 0.011433 0.004737)
(0.000980 0.011435 0.005674)
(0.000987 0.011448 0.006626)
(0.000974 0.011448 0.007572)
(0.000995 0.011440 0.008507)
(0.000980 0.011448 0.009452)
(0.000996 0.011447 0.010395)
(0.000983 0.011429 0.011339)
(0.000997 0.011442 0.012284)
(0.000989 0.011437 0.013231)
(0.000976 0.011435 0.014174)
(0.000990 0.011443 0.015117)
(0.000977 0.011438 0.016064)
(0.000987 0.012391 0.000948)
(0.000983 0.012384 0.001901)
(0.000994 0.012400 0.002845)
(0.000972 0.012382 0.003793)
(0.000980 0.012387 0.004728)
(0.000978 0.012385 0.005683)
(0.000972 0.012400 0.006617)
(0.000999 0.012390 0.007556)
(0.000999 0.012398 0.008513)
(0.000980 0.012385 0.009457)
(0.000983 0.012395 0.010394)
(0.000991 0.012382 0.011345)
(0.000976 0.012387 0.012287)
(0.000991 0.012394 0.013224)
(0.000989 0.012399 0.014178)
(0.000977 0.012385 0.015119)
(0.000983 0.012400 0.016057)
(0.000975 0.013347 0.000956)
(0.000999 0.013345 0.001896)
(0.000971 0.013336 0.002837)
(0.000993 0.013345 0.003795)
(0.000982 0.013344 0.004727)
(0.000986 0.013338 0.005682)
(0.000998 0.013343 0.006621)
(0.000983 0.013334 0.007556)
(0.000989 0.013342 0.008507)
(0.000972 0.013338 0.009447)
(0.000990 0.013345 0.010391)
(0.000992 0.013341 0.011344)
(0.000990 0.013349 0.012286)
(0.001001 0.013338 0.013236)
(0.000985 0.013341 0.014179)
(0.000979 0.013338 0.015127)
(0.000979 0.013350 0.016070)
(0.000981 0.014288 0.000955)
(0.000979 0.014299 0.001904)
(0.000989 0.014291 0.002843)
(0.000997 0.014293 0.003787)
(0.000970 0.014288 0.004734)
(0.000990 0.014303 0.005680)
(0.000983 0.014292 0.006615)
(0.000989 0.014300 0.007559)
(0.000994 0.014301 0.008508)
(0.000982 0.014291 0.009461)
(0.000974 0.014295 0.010400)
(0.000989 0.014294 0.011342)
(0.000978 0.014304 0.012294)
(0.000984 0.014301 0.013233)
(0.000983 0.014294 0.014183)
(0.000987 0.014291 0.015126)
(0.000979 0.014302 0.016064)
(0.001000 0.015239 0.000947)
(0.000992 0.015250 0.001905)
(0.000989 0.015249 0.002839)
(0.000996 0.015258 0.003785)
(0.000991 0.015244 0.004733)
(0.000995 0.015249 0.005675)
(0.000970 0.015252 0.006624)
(0.000992 0.015244 0.007556)
(0.000972 0.015247 0.008515)
(0.000994 0.015252 0.009458)
(0.000988 0.015251 0.010391)
(0.000983 0.015244 0.011334)
(0.000992 0.015249 0.012294)
(0.000993 0.015254 0.013225)
(0.001000 0.015246 0.014176)
(0.000984 0.015252 0.015123)
(0.000989 0.015251 0.016072)
(0.000980 0.016205 0.000961)
(0.000988 0.016204 0.001892)
(0.000973 0.016205 0.002841)
(0.000974 0.016193 0.003781)
(0.000982 0.016196 0.004734)
(0.000980 0.016208 0.005673)
(0.000987 0.016206 0.006618)
(0.000992 0.016204 0.007556)
(0.000970 0.016195 0.008504)
(0.000975 0.016204 0.009445)
(0.000998 0.016193 0.010394)
(0.000983 0.016200 0.011334)
(0.000970 0.016199 0.012288)
(0.000975 0.016197 0.013227)
(0.000976 0.016194 0.014180)
(0.000990 0.016205 0.015124)
(0.000988 0.016204 0.016064)
(0.000976 0.017150 0.000948)
(0.000997 0.017153 0.001903)
(0.000981 0.017155 0.002835)
(0.000984 0.017161 0.003785)
(0.000998 0.017162 0.004733)
(0.000994 0.017149 0.005674)
(0.000997 0.017154 0.006620)
(0.000998 0.017161 0.007562)
(0.000995 0.017162 0.008513)
(0.000990 0.017151 0.009446)
(0.000999 0.017152 0.010403)
(0.000985 0.017153 0.011340)
(0.000995 0.017159 0.012293)
(0.000997 0.017150 0.013237)
(0.001001 0.017145 0.014176)
(0.000982 0.017149 0.015117)
(0.000991 0.017159 0.016062)
(0.000983 0.018113 0.000955)
(0.000993 0.018095 0.001894)
(0.000998 0.018114 0.002841)
(0.000971 0.018111 0.003779)
(0.000993 0.018113 0.004728)
(0.000984 0.018115 0.005682)
(0.000974 0.018105 0.006625)
(0.000994 0.018104 0.007557)
(0.000994 0.018103 0.008516)
(0.000994 0.018107 0.009459)
(0.000973 0.018097 0.010399)
(0.000982 0.018096 0.011344)
(0.000989 0.018107 0.012282)
(0.000971 0.018096 0.013235)
(0.000998 0.018103 0.014171)
(0.000993 0.018114 0.015124)
(0.000996 0.018099 0.016057)
(0.000974 0.019054 0.000951)
(0.000998 0.019056 0.001900)
(0.000978 0.019055 0.002845)
(0.000975 0.019054 0.003787)
(0.000997 0.019061 0.004722)
(0.000997 0.019056 0.005680)
(0.000985 0.019051 0.006617)
(0.000970 0.019061 0.007556)
(0.000976 0.019066 0.008515)
(0.001000 0.019058 0.009446)
(0.000997 0.019056 0.010390)
(0.000997 0.019048 0.011335)
(0.000992 0.019050 0.012294)
(0.000973 0.019052 0.013223)
(0.000989 0.019067 0.014178)
(0.000982 0.019051 0.015124)
(0.000987 0.019065 0.016064)
(0.001947 0.000968 0.000957)
(0.001953 0.000972 0.001890)
(0.001960 0.000957 0.002835)
(0.001956 0.000955 0.003780)
(0.001969 0.000967 0.004735)
(0.001966 0.000967 0.005680)
(0.001963 0.000957 0.006614)
(0.001951 0.000968 0.007560)
(0.001946 0.000968 0.008504)
(0.001957 0.000969 0.009450)
(0.001947 0.000966 0.010391)
(0.001966 0.000964 0.011341)
(0.001955 0.000959 0.012292)
(0.001946 0.000960 0.013233)
(0.001964 0.000961 0.014171)
(0.001955 0.000959 0.015113)
(0.001946 0.000959 0.016059)
(0.001958 0.001919 0.000959)
(0.001953 0.001917 0.001893)
(0.001967 0.001925 0.002844)
(0.001960 0.001911 0.003790)
(0.001943 0.001912 0.004732)
(0.001940 0.001910 0.005680)
(0.001954 0.001909 0.006614)
(0.001971 0.001917 0.007567)
(0.001947 0.001907 0.008511)
(0.001953 0.001923 0.009457)
(0.001948 0.001906 0.010400)
(0.001959 0.001920 0.011345)
(0.001966 0.001921 0.012290)
(0.001943 0.001917 0.013233)
(0.001962 0.001924 0.014169)
(0.001941 0.001924 0.015122)
(0.001963 0.001921 0.016064)
(0.001944 0.002869 0.000947)
(0.001964 0.002862 0.001903)
(0.001961 0.002866 0.002846)
(0.001962 0.002868 0.003787)
(0.001970 0.002875 0.004736)
(0.001952 0.002873 0.005682)
(0.001953 0.002871 0.006620)
(0.001961 0.002874 0.007557)
(0.001950 0.002857 0.008504)
(0.001942 0.002859 0.009459)
(0.001963 0.002860 0.010396)
(0.001948 0.002857 0.011349)
(0.001951 0.002867 0.012285)
(0.001952 0.002869 0.013238)
(0.001948 0.002864 0.014182)
(0.001948 0.002875 0.015123)
(0.001946 0.002863 0.016071)
(0.001969 0.003828 0.000952)
(0.001950 0.003813 0.001899)
(0.001970 0.003813 0.002846)
(0.001971 0.003813 0.003788)
(0.001962 0.003810 0.004737)
(0.001963 0.003828 0.005672)
(0.001941 0.003827 0.006622)
(0.001946 0.003818 0.007567)
(0.001963 0.003811 0.008513)
(0.001954 0.003828 0.009456)
(0.001944 0.003828 0.010405)
(0.001949 0.003828 0.011344)
(0.001961 0.003824 0.012279)
(0.001952 0.003810 0.013235)
(0.001968 0.003821 0.014178)
(0.001963 0.003810 0.015121)
(0.001943 0.003827 0.016067)
(0.001941 0.004767 0.000958)
(0.001963 0.004765 0.001899)
(0.001966 0.004764 0.002848)
(0.001956 0.004771 0.003787)
(0.001944 0.004770 0.004727)
(0.001967 0.004771 0.005682)
(0.001965 0.004764 0.006622)
(0.001963 0.004774 0.007559)
(0.001957 0.004782 0.008513)
(0.001954 0.004762 0.009461)
(0.001940 0.004772 0.010390)
(0.001955 0.004768 0.011336)
(0.001946 0.004782 0.012281)
(0.001946 0.004777 0.013236)
(0.001956 0.004772 0.014174)
(0.001960 0.004767 0.015125)
(0.001953 0.004773 0.016062)
(0.001961 0.005725 0.000946)
(0.001942 0.005723 0.001903)
(0.001955 0.005732 0.002841)
(0.001946 0.005718 0.003793)
(0.001955 0.005727 0.004730)
(0.001954 0.005730 0.005682)
(0.001958 0.005716 0.006617)
(0.001949 0.005723 0.007556)
(0.001958 0.005726 0.008514)
(0.001950 0.005732 0.009455)
(0.001965 0.005722 0.010391)
(0.001959 0.005732 0.011343)
(0.001949 0.005724 0.012287)
(0.001957 0.005715 0.013231)
(0.001942 0.005727 0.014179)
(0.001964 0.005714 0.015126)
(0.001948 0.005719 0.016069)
(0.001950 0.006668 0.000951)
(0.001948 0.006679 0.001901)
(0.001952 0.006675 0.002840)
(0.001968 0.006684 0.003781)
(0.001948 0.006679 0.004736)
(0.001970 0.006684 0.005678)
(0.001946 0.006670 0.006624)
(0.001944 0.006683 0.007567)
(0.001967 0.006670 0.008511)
(0.001958 0.006672 0.009450)
(0.001941 0.006683 0.010397)
(0.001968 0.006669 0.011337)
(0.001957 0.006669 0.012286)
(0.001945 0.006668 0.013239)
(0.001965 0.006679 0.014171)
(0.001943 0.006684 0.015122)
(0.001941 0.006670 0.016062)
(0.001956 0.007624 0.000952)
(0.001941 0.007637 0.001894)
(0.001954 0.007636 0.002835)
(0.001958 0.007638 0.003790)
(0.001966 0.007626 0.004736)
(0.001953 0.007626 0.005681)
(0.001955 0.007632 0.006623)
(0.001957 0.007638 0.007562)
(0.001957 0.007620 0.008508)
(0.001962 0.007624 0.009453)
(0.001959 0.007619 0.010393)
(0.001942 0.007629 0.011344)
(0.001948 0.007637 0.012279)
(0.001969 0.007635 0.013232)
(0.001961 0.007625 0.014181)
(0.001966 0.007627 0.015113)
(0.001952 0.007621 0.016061)
(0.001955 0.008574 0.000953)
(0.001952 0.008583 0.001906)
(0.001945 0.008582 0.002842)
(0.001941 0.008587 0.003783)
(0.001966 0.008576 0.004722)
(0.001961 0.008579 0.005678)
(0.001947 0.008582 0.006619)
(0.001962 0.008572 0.007566)
(0.001956 0.008573 0.008507)
(0.001960 0.008572 0.009447)
(0.001946 0.008590 0.010406)
(0.001943 0.008585 0.011348)
(0.001962 0.008574 0.012287)
(0.001957 0.008576 0.013225)
(0.001964 0.008587 0.014167)
(0.001946 0.008583 0.015120)
(0.001950 0.008578 0.016061)
(0.001961 0.009539 0.000957)
(0.001965 0.009524 0.001900)
(0.001949 0.009536 0.002839)
(0.001955 0.009542 0.003780)
(0.001964 0.009539 0.004737)
(0.001947 0.009526 0.005677)
(0.001963 0.009526 0.006626)
(0.001944 0.009530 0.007566)
(0.001955 0.009526 0.008502)
(0.001940 0.009538 0.009456)
(0.001945 0.009532 0.010403)
(0.001948 0.009537 0.011346)
(0.001967 0.009524 0.012279)
(0.001957 0.009541 0.013229)
(0.001942 0.009531 0.014168)
(0.001956 0.009540 0.015115)
(0.001960 0.009541 0.016058)
(0.001971 0.010477 0.000954)
(0.001947 0.010479 0.001901)
(0.001970 0.010493 0.002842)
(0.001954 0.010493 0.003784)
(0.001946 0.010496 0.004732)
(0.001952 0.010478 0.005671)
(0.001971 0.010484 0.006628)
(0.001959 0.010480 0.007562)
(0.001962 0.010492 0.008515)
(0.001970 0.010490 0.009454)
(0.001956 0.010488 0.010394)
(0.001945 0.010477 0.011339)
(0.001954 0.010483 0.012284)
(0.001949 0.010493 0.013230)
(0.001959 0.010481 0.014183)
(0.001964 0.010489 0.015116)
(0.001961 0.010476 0.016072)
(0.001970 0.011442 0.000949)
(0.001940 0.011437 0.001898)
(0.001949 0.011434 0.002837)
(0.001958 0.011439 0.003791)
(0.001964 0.011447 0.004723)
(0.001952 0.011435 0.005678)
(0.001961 0.011443 0.006624)
(0.001951 0.011432 0.007569)
(0.001941 0.011444 0.008512)
(0.001951 0.011429 0.009447)
(0.001955 0.011430 0.010403)
(0.001971 0.011433 0.011335)
(0.001951 0.011438 0.012291)
(0.001941 0.011441 0.013226)
(0.001958 0.011439 0.014170)
(0.001967 0.011430 0.015123)
(0.001953 0.011437 0.016060)
(0.001941 0.012391 0.000945)
(0.001948 0.012399 0.001897)
(0.001968 0.012400 0.002841)
(0.001956 0.012396 0.003785)
(0.001960 0.012383 0.004731)
(0.001952 0.012398 0.005682)
(0.001959 0.012394 0.006628)
(0.001970 0.012384 0.007559)
(0.001949 0.012399 0.008514)
(0.001945 0.012395 0.009449)
(0.001966 0.012396 0.010393)
(0.001944 0.012400 0.011348)
(0.001958 0.012395 0.012287)
(0.001970 0.012383 0.013229)
(0.001952 0.012383 0.014170)
(0.001942 0.012391 0.015117)
(0.001948 0.012399 0.016059)
(0.001961 0.013351 0.000952)
(0.001958 0.013339 0.001902)
(0.001970 0.013347 0.002850)
(0.001956 0.013334 0.003791)
(0.001939 0.013341 0.004728)
(0.001943 0.013352 0.005667)
(0.001940 0.013346 0.006612)
(0.001953 0.013336 0.007557)
(0.001942 0.013347 0.008506)
(0.001968 0.013342 0.009446)
(0.001942 0.013335 0.010396)
(0.001955 0.013340 0.011335)
(0.001957 0.013345 0.012287)
(0.001951 0.013341 0.013223)
(0.001954 0.013353 0.014170)
(0.001947 0.013350 0.015128)
(0.001960 0.013335 0.016057)
(0.001957 0.014291 0.000953)
(0.001968 0.014299 0.001890)
(0.001947 0.014295 0.002845)
(0.001943 0.014305 0.003794)
(0.001941 0.014294 0.004735)
(0.001956 0.014293 0.005673)
(0.001949 0.014295 0.006617)
(0.001950 0.014295 0.007559)
(0.001941 0.014287 0.008502)
(0.001960 0.014297 0.009450)
(0.001956 0.014299 0.010394)
(0.001951 0.014293 0.011336)
(0.001946 0.014298 0.012282)
(0.001950 0.014289 0.013238)
(0.001940 0.014286 0.014174)
(0.001953 0.014304 0.015115)
(0.001952 0.014302 0.016063)
(0.001940 0.015242 0.000953)
(0.001952 0.015243 0.001894)
(0.001954 0.015249 0.002849)
(0.001951 0.015239 0.003782)
(0.001967 0.015241 0.004739)
(0.001959 0.015243 0.005674)
(0.001949 0.015258 0.006621)
(0.001960 0.015249 0.007571)
(0.001956 0.015257 0.008502)
(0.001954 0.015238 0.009457)
(0.001949 0.015251 0.010400)
(0.001957 0.015245 0.011335)
(0.001966 0.015252 0.012292)
(0.001960 0.015250 0.013224)
(0.001943 0.015244 0.014180)
(0.001958 0.015244 0.015120)
(0.001958 0.015255 0.016066)
(0.001946 0.016203 0.000949)
(0.001949 0.016205 0.001892)
(0.001967 0.016208 0.002841)
(0.001950 0.016191 0.003792)
(0.001946 0.016197 0.004725)
(0.001955 0.016201 0.005675)
(0.001965 0.016198 0.006615)
(0.001954 0.016200 0.007566)
(0.001949 0.016198 0.008505)
(0.001958 0.016198 0.009447)
(0.001941 0.016201 0.010395)
(0.001954 0.016193 0.011343)
(0.001970 0.016200 0.012286)
(0.001964 0.016205 0.013228)
(0.001952 0.016200 0.014173)
(0.001966 0.016208 0.015127)
(0.001963 0.016210 0.016061)
(0.001947 0.017158 0.000948)
(0.001940 0.017149 0.001892)
(0.001957 0.017149 0.002840)
(0.001949 0.017162 0.003780)
(0.001947 0.017155 0.004727)
(0.001950 0.017163 0.005679)
(0.001953 0.017145 0.006616)
(0.001956 0.017146 0.007556)
(0.001949 0.017146 0.008504)
(0.001970 0.017151 0.009448)
(0.001968 0.017143 0.010394)
(0.001951 0.017151 0.011349)
(0.001970 0.017144 0.012289)
(0.001951 0.017143 0.013235)
(0.001961 0.017153 0.014179)
(0.001940 0.017159 0.015122)
(0.001961 0.017156 0.016059)
(0.001963 0.018110 0.000950)
(0.001967 0.018109 0.001903)
(0.001947 0.018110 0.002841)
(0.001949 0.018096 0.003784)
(0.001965 0.018103 0.004723)
(0.001959 0.018112 0.005677)
(0.001942 0.018104 0.006618)
(0.001958 0.018105 0.007571)
(0.001970 0.018104 0.008515)
(0.001953 0.018106 0.009447)
(0.001955 0.018113 0.010389)
(0.001942 0.018100 0.011338)
(0.001945 0.018114 0.012294)
(0.001947 0.018114 0.013229)
(0.001950 0.018108 0.014173)
(0.001943 0.018114 0.015128)
(0.001961 0.018114 0.016065)
(0.001968 0.019058 0.000945)
(0.001957 0.019053 0.001891)
(0.001954 0.019066 0.002841)
(0.001950 0.019051 0.003781)
(0.001942 0.019064 0.004735)
(0.001941 0.019049 0.005683)
(0.001970 0.019063 0.006625)
(0.001956 0.019052 0.007566)
(0.001945 0.019050 0.008514)
(0.001965 0.019063 0.009447)
(0.001943 0.019059 0.010389)
(0.001956 0.019050 0.011340)
(0.001940 0.019057 0.012290)
(0.001964 0.019061 0.013235)
(0.001941 0.019049 0.014180)
(0.001961 0.019053 0.015126)
(0.001949 0.019057 0.016067)
(0.002940 0.000958 0.000958)
(0.002917 0.000961 0.001897)
(0.002924 0.000963 0.002836)
(0.002911 0.000965 0.003784)
(0.002932 0.000967 0.004732)
(0.002927 0.000960 0.005682)
(0.002918 0.000957 0.006627)
(0.002910 0.000965 0.007558)
(0.002934 0.000966 0.008503)
(0.002924 0.000958 0.009445)
(0.002910 0.000958 0.010400)
(0.002937 0.000972 0.011335)
(0.002935 0.000971 0.012283)
(0.002913 0.000956 0.013238)
(0.002936 0.000957 0.014172)
(0.002937 0.000965 0.015127)
(0.002927 0.000962 0.016067)
(0.002940 0.001922 0.000954)
(0.002921 0.001920 0.001897)
(0.002925 0.001924 0.002847)
(0.002940 0.001916 0.003780)
(0.002924 0.001910 0.004730)
(0.002938 0.001908 0.005675)
(0.002916 0.001920 0.006624)
(0.002927 0.001921 0.007558)
(0.002914 0.001913 0.008514)
(0.002924 0.001914 0.009456)
(0.002926 0.001923 0.010395)
(0.002936 0.001922 0.011335)
(0.002935 0.001909 0.012290)
(0.002918 0.001920 0.013225)
(0.002919 0.001913 0.014170)
(0.002926 0.001911 0.015115)
(0.002923 0.001909 0.016061)
(0.002917 0.002869 0.000955)
(0.002937 0.002871 0.001895)
(0.002936 0.002862 0.002844)
(0.002916 0.002875 0.003778)
(0.002927 0.002873 0.004730)
(0.002920 0.002871 0.005683)
(0.002914 0.002863 0.006614)
(0.002927 0.002867 0.007560)
(0.002939 0.002866 0.008507)
(0.002931 0.002867 0.009458)
(0.002939 0.002875 0.010394)
(0.002911 0.002869 0.011341)
(0.002929 0.002861 0.012292)
(0.002937 0.002861 0.013227)
(0.002919 0.002863 0.014177)
(0.002937 0.002858 0.015124)
(0.002939 0.002873 0.016064)
(0.002922 0.003825 0.000951)
(0.002914 0.003828 0.001892)
(0.002918 0.003827 0.002843)
(0.002926 0.003817 0.003787)
(0.002923 0.003824 0.004735)
(0.002938 0.003825 0.005667)
(0.002930 0.003829 0.006614)
(0.002929 0.003823 0.007561)
(0.002923 0.003819 0.008501)
(0.002921 0.003813 0.009461)
(0.002935 0.003822 0.010391)
(0.002915 0.003814 0.011347)
(0.002939 0.003827 0.012291)
(0.002928 0.003819 0.013230)
(0.002933 0.003827 0.014179)
(0.002919 0.003818 0.015115)
(0.002920 0.003819 0.016058)
(0.002925 0.004763 0.000954)
(0.002912 0.004762 0.001895)
(0.002919 0.004770 0.002838)
(0.002912 0.004766 0.003786)
(0.002916 0.004777 0.004724)
(0.002933 0.004770 0.005670)
(0.002920 0.004764 0.006619)
(0.002917 0.004782 0.007566)
(0.002929 0.004774 0.008516)
(0.002940 0.004777 0.009448)
(0.002939 0.004778 0.010395)
(0.002922 0.004766 0.011343)
(0.002931 0.004781 0.012283)
(0.002935 0.004775 0.013231)
(0.002914 0.004770 0.014171)
(0.002922 0.004776 0.015111)
(0.002911 0.004769 0.016059)
(0.002913 0.005723 0.000948)
(0.002936 0.005724 0.001894)
(0.002922 0.005724 0.002839)
(0.002913 0.005723 0.003789)
(0.002923 0.005728 0.004736)
(0.002926 0.005724 0.005682)
(0.002931 0.005725 0.006618)
(0.002930 0.005733 0.007568)
(0.002934 0.005722 0.008514)
(0.002931 0.005733 0.009452)
(0.002922 0.005733 0.010404)
(0.002918 0.005729 0.011348)
(0.002923 0.005718 0.012290)
(0.002934 0.005722 0.013237)
(0.002912 0.005724 0.014179)
(0.002925 0.005732 0.015120)
(0.002921 0.005724 0.016060)
(0.002921 0.006673 0.000956)
(0.002933 0.006680 0.001894)
(0.002936 0.006668 0.002846)
(0.002918 0.006681 0.003785)
(0.002922 0.006677 0.004739)
(0.002917 0.006676 0.005683)
(0.002926 0.006678 0.006614)
(0.002930 0.006675 0.007565)
(0.002929 0.006668 0.008505)
(0.002937 0.006683 0.009460)
(0.002933 0.006667 0.010397)
(0.002927 0.006671 0.011340)
(0.002913 0.006669 0.012293)
(0.002924 0.006668 0.013238)
(0.002918 0.006686 0.014172)
(0.002920 0.006671 0.015122)
(0.002931 0.006671 0.016069)
(0.002933 0.007621 0.000954)
(0.002933 0.007637 0.001894)
(0.002939 0.007621 0.002845)
(0.002919 0.007621 0.003794)
(0.002929 0.007638 0.004732)
(0.002921 0.007623 0.005673)
(0.002935 0.007632 0.006624)
(0.002913 0.007636 0.007565)
(0.002930 0.007622 0.008509)
(0.002912 0.007626 0.009457)
(0.002913 0.007634 0.010393)
(0.002910 0.007628 0.011344)
(0.002932 0.007635 0.012278)
(0.002929 0.007625 0.013235)
(0.002927 0.007630 0.014175)
(0.002912 0.007632 0.015124)
(0.002934 0.007620 0.016069)
(0.002932 0.008572 0.000956)
(0.002921 0.008583 0.001891)
(0.002910 0.008587 0.002837)
(0.002912 0.008586 0.003790)
(0.002923 0.008590 0.004724)
(0.002932 0.008573 0.005673)
(0.002931 0.008574 0.006613)
(0.002930 0.008591 0.007559)
(0.002936 0.008579 0.008515)
(0.002914 0.008582 0.009449)
(0.002909 0.008589 0.010404)
(0.002910 0.008576 0.011334)
(0.002928 0.008582 0.012280)
(0.002915 0.008577 0.013223)
(0.002933 0.008584 0.014173)
(0.002910 0.008591 0.015118)
(0.002916 0.008589 0.016058)
(0.002925 0.009541 0.000961)
(0.002939 0.009537 0.001891)
(0.002916 0.009524 0.002845)
(0.002936 0.009524 0.003791)
(0.002925 0.009540 0.004727)
(0.002937 0.009524 0.005682)
(0.002939 0.009532 0.006617)
(0.002916 0.009536 0.007565)
(0.002936 0.009534 0.008502)
(0.002939 0.009528 0.009460)
(0.002939 0.009532 0.010391)
(0.002914 0.009525 0.011349)
(0.002933 0.009535 0.012287)
(0.002924 0.009538 0.013237)
(0.002935 0.009529 0.014179)
(0.002924 0.009527 0.015121)
(0.002934 0.009536 0.016070)
(0.002913 0.010482 0.000950)
(0.002912 0.010491 0.001897)
(0.002921 0.010491 0.002847)
(0.002932 0.010487 0.003783)
(0.002930 0.010492 0.004732)
(0.002936 0.010479 0.005669)
(0.002916 0.010491 0.006625)
(0.002936 0.010495 0.007556)
(0.002937 0.010485 0.008510)
(0.002935 0.010477 0.009457)
(0.002935 0.010482 0.010394)
(0.002919 0.010481 0.011349)
(0.002930 0.010477 0.012287)
(0.002916 0.010491 0.013234)
(0.002941 0.010491 0.014171)
(0.002939 0.010482 0.015121)
(0.002928 0.010486 0.016068)
(0.002921 0.011444 0.000953)
(0.002915 0.011446 0.001891)
(0.002916 0.011442 0.002835)
(0.002923 0.011443 0.003794)
(0.002926 0.011444 0.004737)
(0.002927 0.011434 0.005670)
(0.002925 0.011437 0.006613)
(0.002921 0.011433 0.007565)
(0.002915 0.011431 0.008503)
(0.002935 0.011431 0.009450)
(0.002936 0.011448 0.010391)
(0.002936 0.011436 0.011345)
(0.002929 0.011435 0.012293)
(0.002932 0.011429 0.013228)
(0.002940 0.011447 0.014175)
(0.002941 0.011431 0.015119)
(0.002938 0.011443 0.016059)
(0.002912 0.012386 0.000959)
(0.002936 0.012389 0.001895)
(0.002909 0.012388 0.002843)
(0.002910 0.012396 0.003784)
(0.002927 0.012383 0.004733)
(0.002934 0.012388 0.005681)
(0.002926 0.012383 0.006614)
(0.002912 0.012394 0.007556)
(0.002940 0.012388 0.008512)
(0.002919 0.012394 0.009450)
(0.002931 0.012392 0.010391)
(0.002925 0.012385 0.011349)
(0.002931 0.012399 0.012283)
(0.002924 0.012391 0.013225)
(0.002934 0.012383 0.014169)
(0.002926 0.012394 0.015113)
(0.002936 0.012384 0.016064)
(0.002925 0.013338 0.000955)
(0.002935 0.013339 0.001892)
(0.002921 0.013353 0.002846)
(0.002927 0.013345 0.003794)
(0.002918 0.013352 0.004737)
(0.002918 0.013348 0.005676)
(0.002934 0.013341 0.006618)
(0.002912 0.013334 0.007563)
(0.002938 0.013346 0.008506)
(0.002921 0.013353 0.009455)
(0.002932 0.013338 0.010400)
(0.002920 0.013334 0.011344)
(0.002934 0.013346 0.012292)
(0.002924 0.013349 0.013231)
(0.002912 0.013335 0.014172)
(0.002921 0.013350 0.015123)
(0.002921 0.013334 0.016065)
(0.002932 0.014289 0.000947)
(0.002939 0.014297 0.001892)
(0.002909 0.014297 0.002848)
(0.002917 0.014299 0.003786)
(0.002933 0.014304 0.004735)
(0.002920 0.014300 0.005679)
(0.002938 0.014297 0.006619)
(0.002914 0.014290 0.007565)
(0.002915 0.014294 0.008505)
(0.002934 0.014298 0.009457)
(0.002910 0.014292 0.010395)
(0.002924 0.014289 0.011348)
(0.002918 0.014286 0.012282)
(0.002910 0.014305 0.013232)
(0.002919 0.014304 0.014168)
(0.002922 0.014299 0.015116)
(0.002932 0.014289 0.016066)
(0.002919 0.015247 0.000954)
(0.002918 0.015247 0.001899)
(0.002914 0.015241 0.002848)
(0.002919 0.015238 0.003781)
(0.002935 0.015254 0.004732)
(0.002912 0.015245 0.005682)
(0.002931 0.015251 0.006614)
(0.002933 0.015241 0.007562)
(0.002928 0.015255 0.008507)
(0.002916 0.015243 0.009448)
(0.002929 0.015255 0.010391)
(0.002921 0.015243 0.011344)
(0.002917 0.015245 0.012286)
(0.002915 0.015243 0.013225)
(0.002918 0.015238 0.014168)
(0.002924 0.015244 0.015121)
(0.002911 0.015254 0.016062)
(0.002918 0.016194 0.000957)
(0.002928 0.016197 0.001890)
(0.002922 0.016210 0.002839)
(0.002921 0.016193 0.003786)
(0.002920 0.016210 0.004726)
(0.002917 0.016192 0.005673)
(0.002911 0.016193 0.006613)
(0.002933 0.016210 0.007570)
(0.002917 0.016204 0.008511)
(0.002914 0.016208 0.009447)
(0.002935 0.016203 0.010393)
(0.002919 0.016207 0.011341)
(0.002934 0.016210 0.012286)
(0.002936 0.016206 0.013225)
(0.002925 0.016192 0.014179)
(0.002926 0.016191 0.015113)
(0.002937 0.016195 0.016060)
(0.002921 0.017147 0.000954)
(0.002924 0.017152 0.001904)
(0.002941 0.017151 0.002848)
(0.002928 0.017154 0.003778)
(0.002936 0.017143 0.004725)
(0.002910 0.017146 0.005676)
(0.002936 0.017152 0.006623)
(0.002918 0.017156 0.007569)
(0.002916 0.017153 0.008513)
(0.002919 0.017154 0.009447)
(0.002915 0.017159 0.010400)
(0.002910 0.017159 0.011345)
(0.002926 0.017162 0.012288)
(0.002915 0.017147 0.013238)
(0.002937 0.017162 0.014170)
(0.002912 0.017143 0.015116)
(0.002938 0.017151 0.016067)
(0.002918 0.018096 0.000959)
(0.002937 0.018102 0.001899)
(0.002913 0.018100 0.002837)
(0.002931 0.018106 0.003783)
(0.002930 0.018106 0.004723)
(0.002934 0.018106 0.005682)
(0.002926 0.018111 0.006623)
(0.002923 0.018113 0.007565)
(0.002938 0.018110 0.008500)
(0.002927 0.018103 0.009461)
(0.002924 0.018099 0.010405)
(0.002916 0.018105 0.011338)
(0.002917 0.018104 0.012286)
(0.002934 0.018114 0.013224)
(0.002927 0.018114 0.014178)
(0.002916 0.018114 0.015122)
(0.002910 0.018111 0.016062)
(0.002911 0.019063 0.000955)
(0.002921 0.019067 0.001903)
(0.002928 0.019063 0.002850)
(0.002910 0.019062 0.003781)
(0.002916 0.019063 0.004731)